Version 4.1
SHEET 1 1568 1540
WIRE 96 -320 96 -352
WIRE 208 -320 96 -320
WIRE 384 -320 384 -384
WIRE 384 -320 288 -320
WIRE 512 -320 384 -320
WIRE 96 -288 96 -320
WIRE 384 -288 384 -320
WIRE 512 -288 512 -320
WIRE 640 -96 576 -96
WIRE 752 -96 720 -96
WIRE 96 0 96 -32
WIRE 96 0 0 0
WIRE 192 0 96 0
WIRE 0 32 0 0
WIRE 192 48 192 0
WIRE 576 48 576 -96
WIRE 576 48 496 48
WIRE 576 64 576 48
WIRE 656 64 576 64
WIRE 752 80 752 -96
WIRE 752 80 720 80
WIRE 928 80 752 80
WIRE 1104 80 1008 80
WIRE 656 96 576 96
WIRE 1216 96 1168 96
WIRE 1296 96 1216 96
WIRE 1104 112 1056 112
WIRE 0 128 0 112
WIRE 96 128 0 128
WIRE 192 144 192 112
WIRE 416 144 192 144
WIRE 576 144 576 96
WIRE 576 144 496 144
WIRE 0 160 0 128
WIRE 192 160 192 144
WIRE 1056 160 1056 112
WIRE 1216 160 1216 96
WIRE 1216 160 1056 160
WIRE 576 176 576 144
WIRE 1056 192 1056 160
WIRE 96 208 96 128
WIRE 96 208 64 208
WIRE 128 208 96 208
WIRE 0 288 0 256
WIRE 96 288 0 288
WIRE 192 288 192 256
WIRE 192 288 96 288
WIRE 576 288 576 256
WIRE 96 304 96 288
FLAG 96 304 0
FLAG 576 288 0
FLAG 752 -240 0
FLAG 752 -320 +3.3V
IOPIN 752 -320 Out
FLAG 96 -32 +3.3V
IOPIN 96 -32 In
FLAG 688 48 +3.3V
IOPIN 688 48 In
FLAG 1136 128 +3.3V
IOPIN 1136 128 In
FLAG 1136 64 0
FLAG 688 112 0
FLAG 1056 256 0
FLAG 96 -208 0
FLAG 384 -208 0
FLAG 512 -224 0
FLAG 384 -384 +VCom
IOPIN 384 -384 BiDir
FLAG 416 48 +VCom
IOPIN 416 48 BiDir
FLAG 96 -432 +3.3V
IOPIN 96 -432 In
SYMBOL npn 64 160 M0
SYMATTR InstName Q1
SYMBOL npn 128 160 R0
SYMATTR InstName Q2
SYMBOL res -16 16 R0
SYMATTR InstName R1
SYMATTR Value 33k
SYMBOL diode 176 48 R0
SYMATTR InstName D1
SYMBOL OpAmps\\UniversalOpAmp2 688 80 R0
SYMATTR InstName U1
SYMBOL res 512 32 R90
WINDOW 0 0 56 VBottom 2
WINDOW 3 32 56 VTop 2
SYMATTR InstName R2
SYMATTR Value 10k
SYMBOL res 512 128 R90
WINDOW 0 0 56 VBottom 2
WINDOW 3 32 56 VTop 2
SYMATTR InstName R3
SYMATTR Value 10k
SYMBOL res 592 272 R180
WINDOW 0 36 76 Left 2
WINDOW 3 36 40 Left 2
SYMATTR InstName R4
SYMATTR Value 10k
SYMBOL res 736 -112 R90
WINDOW 0 0 56 VBottom 2
WINDOW 3 32 56 VTop 2
SYMATTR InstName R5
SYMATTR Value 10k
SYMBOL OpAmps\\UniversalOpAmp2 1136 96 M180
SYMATTR InstName U2
SYMBOL res 1024 64 R90
WINDOW 0 0 56 VBottom 2
WINDOW 3 32 56 VTop 2
SYMATTR InstName R6
SYMATTR Value 10k
SYMBOL cap 1040 192 R0
SYMATTR InstName C1
SYMATTR Value 100n
SYMBOL voltage 752 -336 R0
WINDOW 123 0 0 Left 0
WINDOW 39 0 0 Left 0
SYMATTR InstName V2
SYMATTR Value 3.3V
SYMBOL voltage 96 -304 R0
WINDOW 123 0 0 Left 0
WINDOW 39 0 0 Left 0
SYMATTR InstName V1
SYMATTR Value 2.5V
SYMBOL res 80 -448 R0
SYMATTR InstName R7
SYMATTR Value 2.2k
SYMBOL res 304 -336 R90
WINDOW 0 0 56 VBottom 2
WINDOW 3 32 56 VTop 2
SYMATTR InstName R8
SYMATTR Value 5.1k
SYMBOL res 400 -192 R180
WINDOW 0 36 76 Left 2
WINDOW 3 36 40 Left 2
SYMATTR InstName R9
SYMATTR Value 10k
SYMBOL cap 496 -288 R0
SYMATTR InstName C2
SYMATTR Value 100n
TEXT -320 0 Left 2 !.tran 0 100m 0 0.01m
TEXT 8 360 Left 2 !.step temp 0 100 25
